<?xml version="1.0" encoding="UTF-8"?>

<!-- generated on 2025-06-02 12:05:10 by 
<configuration xmlns:xsi="http://www.w3.org/2001/XMLSchema-instance" xsi:noNamespaceSchemaLocation="http://sumo.dlr.de/xsd/Configuration.xsd">

    <input>
        <osm-files value="TRUE"/>
    </input>

    <output>
        <opendrive-output value="TRUE"/>
    </output>

    <projection>
        <proj value="+proj=tmerc"/>
    </projection>

    <processing>
        <geometry.remove value="true"/>
        <roundabouts.guess value="true"/>
        <edges.join value="true"/>
    </processing>

    <building_defaults>
        <default.lanewidth value="3.350000"/>
        <default.sidewalk-width value="2.800000"/>
    </building_defaults>

    <tls_building>
        <tls.group-signals value="true"/>
    </tls_building>

    <ramp_guessing>
        <ramps.guess value="true"/>
    </ramp_guessing>

    <edge_removal>
        <keep-edges.by-type value="highway.trunk,"/>
    </edge_removal>

    <junctions>
        <junctions.join value="true"/>
    </junctions>

    <pedestrian>
        <sidewalks.guess value="true"/>
    </pedestrian>

    <formats>
        <osm.sidewalks value="true"/>
        <osm.crossings value="true"/>
    </formats>

    <report>
        <aggregate-warnings value="5"/>
    </report>

</configuration>
-->

<OpenDRIVE>
    <header revMajor="1" revMinor="4" name="" version="1.00" date="Mon Jun  2 12:05:10 2025" north="7091.86" south="0.00" east="12305.18" west="0.00">
        <geoReference>
 <![CDATA[
 +proj=tmerc
]]>
        </geoReference>
        <offset x="302215.07" y="-4493531.11" z="0.00" hdg="0"/>
    </header>
    <road name="" length="8582.88735117" id="150" junction="-1">
        <link>
            <predecessor elementType="junction" elementId="1"/>
            <successor elementType="junction" elementId="2"/>
        </link>
        <type s="0" type="town"/>
        <planView>
            <geometry s="0.00000000" x="5723.18420214" y="3473.88923701" hdg="-0.33076442" length="37.79354827">
                <line/>
            </geometry>
            <geometry s="37.79354827" x="5758.92912706" y="3461.61517356" hdg="-0.33076442" length="24.99804501">
                <paramPoly3 aU="0.00000000" bU="18.74814885" cU="18.74814849" dU="-12.50123349" aV="0.00000000" bV="-0.00000000" cV="0.52693301" dV="-0.17567901" pRange="normalized"/>
            </geometry>
            <geometry s="62.79159328" x="5782.68339294" y="3453.82983808" hdg="-0.30266040" length="45.95799923">
                <line/>
            </geometry>
            <geometry s="108.74959251" x="5826.55245900" y="3440.13156313" hdg="-0.30266040" length="24.98477817">
                <paramPoly3 aU="0.00000000" bU="18.73699318" cU="18.71364375" dU="-12.48530976" aV="0.00000000" bV="0.00000000" cV="1.75554241" dV="-0.82515620" pRange="normalized"/>
            </geometry>
            <geometry s="133.73437069" x="5850.66034645" y="3433.57847668" hdg="-0.24736101" length="23.48632740">
                <paramPoly3 aU="0.00000000" bU="17.61398066" cU="17.61567659" dU="-11.74867857" aV="0.00000000" bV="0.00000000" cV="0.63365855" dV="-0.18275881" pRange="normalized"/>
            </geometry>
            <geometry s="157.22069808" x="5873.53701084" y="3428.26642462" hdg="-0.20652751" length="24.97889325">
                <paramPoly3 aU="0.00000000" bU="18.73348600" cU="18.73108363" dU="-12.49175507" aV="0.00000000" bV="0.00000000" cV="0.82365448" dV="-0.31563418" pRange="normalized"/>
            </geometry>
            <geometry s="182.19959133" x="5898.08330130" y="3423.64266248" hdg="-0.16913085" length="17.10004714">
                <paramPoly3 aU="0.00000000" bU="12.82456358" cU="12.81704153" dU="-8.54749475" aV="0.00000000" bV="-0.00000000" cV="0.81392559" dV="-0.38790864" pRange="normalized"/>
            </geometry>
            <geometry s="199.29963848" x="5915.00521290" y="3421.18522321" hdg="-0.13293261" length="24.99554891">
                <paramPoly3 aU="0.00000000" bU="18.74661603" cU="18.74495154" dU="-12.49682391" aV="0.00000000" bV="0.00000000" cV="0.43269553" dV="-0.23979182" pRange="normalized"/>
            </geometry>
            <geometry s="224.29518739" x="5939.80500725" y="3418.06358546" hdg="-0.10621584" length="0.09424904">
                <line/>
            </geometry>
            <geometry s="224.38943643" x="5939.89872514" y="3418.05359353" hdg="-0.06956073" length="24.98340588">
                <paramPoly3 aU="0.00000000" bU="18.73731001" cU="18.74034684" dU="-12.49457707" aV="0.00000000" bV="-0.00000000" cV="-0.32701251" dV="0.33046645" pRange="normalized"/>
            </geometry>
            <geometry s="249.37284231" x="5964.82162660" y="3416.32059899" hdg="-0.05155427" length="23.58868354">
                <paramPoly3 aU="0.00000000" bU="17.69096802" cU="17.68870916" dU="-11.79594384" aV="0.00000000" bV="0.00000000" cV="0.73223449" dV="-0.28585544" pRange="normalized"/>
            </geometry>
            <geometry s="272.96152586" x="5988.39702850" y="3415.55108123" hdg="-0.01724175" length="21.95307760">
                <paramPoly3 aU="0.00000000" bU="16.46409100" cU="16.46862408" dU="-10.98359428" aV="0.00000000" bV="0.00000000" cV="0.42137726" dV="-0.05843494" pRange="normalized"/>
            </geometry>
            <geometry s="294.91460346" x="6010.34914434" y="3415.53554709" hdg="0.02330909" length="17.60311466">
                <paramPoly3 aU="0.00000000" bU="13.20173052" cU="13.18805096" dU="-8.79536990" aV="0.00000000" bV="0.00000000" cV="1.06755694" dV="-0.54038960" pRange="normalized"/>
            </geometry>
            <geometry s="312.51771812" x="6027.92648982" y="3416.47264375" hdg="0.06224906" length="14.18313446">
                <paramPoly3 aU="0.00000000" bU="10.63715922" cU="10.63815376" dU="-7.09331619" aV="0.00000000" bV="0.00000000" cV="0.19626150" dV="-0.03807649" pRange="normalized"/>
            </geometry>
            <geometry s="326.70085258" x="6042.07117775" y="3417.51276826" hdg="0.08841443" length="13.83611805">
                <paramPoly3 aU="0.00000000" bU="10.37696622" cU="10.37403515" dU="-6.91668456" aV="0.00000000" bV="0.00000000" cV="0.43583504" dV="-0.22293094" pRange="normalized"/>
            </geometry>
            <geometry s="340.53697062" x="6055.83265829" y="3418.94640109" hdg="0.10796641" length="21.44839649">
                <paramPoly3 aU="0.00000000" bU="16.08612583" cU="16.08847756" dU="-10.72651298" aV="0.00000000" bV="0.00000000" cV="-0.11548401" dV="0.17309159" pRange="normalized"/>
            </geometry>
            <geometry s="361.98536711" x="6077.14965501" y="3421.31485033" hdg="0.12589007" length="12.48149664">
                <paramPoly3 aU="0.00000000" bU="9.36081468" cU="9.35281723" dU="-6.23682505" aV="0.00000000" bV="0.00000000" cV="0.67942589" dV="-0.35261658" pRange="normalized"/>
            </geometry>
            <geometry s="374.46686376" x="6089.48669076" y="3423.20563387" hdg="0.15805115" length="24.80821153">
                <paramPoly3 aU="0.00000000" bU="18.60580024" cU="18.61070663" dU="-12.40888526" aV="0.00000000" bV="-0.00000000" cV="-0.21797544" dV="0.29253357" pRange="normalized"/>
            </geometry>
            <geometry s="399.27507529" x="6113.97337260" y="3427.18383218" hdg="0.18179059" length="23.88509309">
                <paramPoly3 aU="0.00000000" bU="17.91268431" cU="17.91772081" dU="-11.95236463" aV="0.00000000" bV="0.00000000" cV="0.66250756" dV="-0.14818090" pRange="normalized"/>
            </geometry>
            <geometry s="423.16016839" x="6137.36495432" y="3432.00661710" hdg="0.23096398" length="20.00266993">
                <paramPoly3 aU="0.00000000" bU="15.00108566" cU="14.98437268" dU="-9.99490252" aV="0.00000000" bV="0.00000000" cV="1.28811621" dV="-0.62813019" pRange="normalized"/>
            </geometry>
            <geometry s="443.16283831" x="6156.67360310" y="3437.22523626" hdg="0.27709980" length="24.47306948">
                <paramPoly3 aU="0.00000000" bU="18.34897760" cU="18.42844048" dU="-12.31352472" aV="0.00000000" bV="0.00000000" cV="-0.96252354" dV="1.22519327" pRange="normalized"/>
            </geometry>
            <geometry s="467.63590780" x="6180.13241163" y="3444.17040552" hdg="0.37264731" length="61.28741891">
                <line/>
            </geometry>
            <geometry s="528.92332671" x="6237.21347721" y="3466.48407103" hdg="0.37264731" length="24.98440675">
                <paramPoly3 aU="0.00000000" bU="18.73523860" cU="18.73521537" dU="-12.50980222" aV="0.00000000" bV="-0.00000000" cV="1.48772858" dV="-0.49668975" pRange="normalized"/>
            </geometry>
            <geometry s="553.90773345" x="6260.10017917" y="3476.49482360" hdg="0.45201371" length="80.15781204">
                <line/>
            </geometry>
            <geometry s="634.06554550" x="6332.20769275" y="3511.50598348" hdg="0.45201371" length="24.99021324">
                <paramPoly3 aU="0.00000000" bU="18.74190242" cU="18.72116543" dU="-12.48465673" aV="0.00000000" bV="0.00000000" cV="-1.54260417" dV="0.80826360" pRange="normalized"/>
            </geometry>
            <geometry s="659.05575873" x="6354.99825037" y="3521.75541086" hdg="0.41676893" length="6.21664332">
                <paramPoly3 aU="0.00000000" bU="4.66211875" cU="4.66387721" dU="-3.11155930" aV="0.00000000" bV="0.00000000" cV="-0.18489131" dV="0.03859941" pRange="normalized"/>
            </geometry>
            <geometry s="665.27240205" x="6360.73996182" y="3524.13729541" hdg="0.36226362" length="24.98145840">
                <paramPoly3 aU="0.00000000" bU="18.73597981" cU="18.73594775" dU="-12.49136266" aV="0.00000000" bV="0.00000000" cV="-0.29081089" dV="0.09833347" pRange="normalized"/>
            </geometry>
            <geometry s="690.25386046" x="6384.16742582" y="3532.81021884" hdg="0.34696511" length="6.10463277">
                <paramPoly3 aU="0.00000000" bU="4.57828065" cU="4.57219100" dU="-3.04904559" aV="0.00000000" bV="0.00000000" cV="-0.41028940" dV="0.22059381" pRange="normalized"/>
            </geometry>
            <geometry s="696.35849322" x="6389.96976716" y="3534.70658891" hdg="0.31227322" length="24.99975217">
                <paramPoly3 aU="0.00000000" bU="18.74981071" cU="18.74984374" dU="-12.49991656" aV="0.00000000" bV="0.00000000" cV="-0.01784564" dV="-0.00420047" pRange="normalized"/>
            </geometry>
            <geometry s="721.35824539" x="6413.76723190" y="3542.36609627" hdg="0.30969758" length="15.12526066">
                <paramPoly3 aU="0.00000000" bU="11.34381924" cU="11.34554968" dU="-7.56433587" aV="0.00000000" bV="0.00000000" cV="0.08103058" dV="-0.12337476" pRange="normalized"/>
            </geometry>
            <geometry s="736.48350605" x="6428.18560857" y="3546.93543228" hdg="0.29135501" length="24.99245308">
                <paramPoly3 aU="0.00000000" bU="18.74416471" cU="18.74421566" dU="-12.49726637" aV="0.00000000" bV="0.00000000" cV="-0.34993340" dV="0.11485403" pRange="normalized"/>
            </geometry>
            <geometry s="761.47595913" x="6452.19101189" y="3553.88896757" hdg="0.27239839" length="15.50097931">
                <paramPoly3 aU="0.00000000" bU="11.62544161" cU="11.62556130" dU="-7.75225184" aV="0.00000000" bV="-0.00000000" cV="-0.35418995" dV="0.11550844" pRange="normalized"/>
            </geometry>
            <geometry s="776.97693844" x="6467.18251457" y="3557.82890424" hdg="0.24126727" length="24.99200147">
                <paramPoly3 aU="0.00000000" bU="18.74390921" cU="18.74186647" dU="-12.49508640" aV="0.00000000" bV="-0.00000000" cV="-0.49235444" dV="0.24850472" pRange="normalized"/>
            </geometry>
            <geometry s="801.96893992" x="6491.50763639" y="3563.56322735" hdg="0.22850573" length="3.33959326">
                <paramPoly3 aU="0.00000000" bU="2.50454751" cU="2.50484607" dU="-1.67084105" aV="0.00000000" bV="0.00000000" cV="-0.10619431" dV="0.03111305" pRange="normalized"/>
            </geometry>
            <geometry s="805.30853318" x="6494.77641406" y="3564.24635451" hdg="0.18095449" length="24.99009691">
                <paramPoly3 aU="0.00000000" bU="18.74243098" cU="18.74431034" dU="-12.49697350" aV="0.00000000" bV="0.00000000" cV="0.04251593" dV="-0.12621203" pRange="normalized"/>
            </geometry>
            <geometry s="830.29863008" x="6519.37322069" y="3568.66139751" hdg="0.16528863" length="19.12011359">
                <paramPoly3 aU="0.00000000" bU="14.33981108" cU="14.33753391" dU="-9.56007436" aV="0.00000000" bV="0.00000000" cV="-0.53887390" dV="0.23108962" pRange="normalized"/>
            </geometry>
            <geometry s="849.41874368" x="6538.28058214" y="3571.50330713" hdg="0.13847343" length="24.99560319">
                <paramPoly3 aU="0.00000000" bU="18.74664619" cU="18.74494404" dU="-12.49690181" aV="0.00000000" bV="0.00000000" cV="-0.43964010" dV="0.23474157" pRange="normalized"/>
            </geometry>
            <geometry s="874.41434686" x="6563.06430045" y="3574.75041961" hdg="0.12913533" length="1.60422669">
                <paramPoly3 aU="0.00000000" bU="1.20309973" cU="1.20364959" dU="-0.80286972" aV="0.00000000" bV="0.00000000" cV="-0.02940174" dV="0.00089187" pRange="normalized"/>
            </geometry>
            <geometry s="876.01857355" x="6564.65849694" y="3574.92868947" hdg="0.08246567" length="24.98838621">
                <paramPoly3 aU="0.00000000" bU="18.74113565" cU="18.74324067" dU="-12.49623844" aV="0.00000000" bV="0.00000000" cV="0.15032042" dV="-0.19666694" pRange="normalized"/>
            </geometry>
            <geometry s="901.00695976" x="6589.56553363" y="3576.94082913" hdg="0.06702522" length="19.77849146">
                <paramPoly3 aU="0.00000000" bU="14.83345789" cU="14.83260444" dU="-9.89103206" aV="0.00000000" bV="0.00000000" cV="-0.53475204" dV="0.19528040" pRange="normalized"/>
            </geometry>
            <geometry s="920.78545122" x="6609.31889817" y="3577.92655340" hdg="0.03441323" length="24.99068433">
                <paramPoly3 aU="0.00000000" bU="18.74282171" cU="18.74077269" dU="-12.49503281" aV="0.00000000" bV="-0.00000000" cV="-0.55155974" dV="0.24606205" pRange="normalized"/>
            </geometry>
            <geometry s="945.77613555" x="6634.30317569" y="3578.48100403" hdg="0.01494144" length="8.86765253">
                <paramPoly3 aU="0.00000000" bU="6.65046621" cU="6.65016976" dU="-4.43519725" aV="0.00000000" bV="0.00000000" cV="-0.27904746" dV="0.09794581" pRange="normalized"/>
            </geometry>
            <geometry s="954.64378809" x="6643.17033066" y="3578.43238006" hdg="-0.02480421" length="24.99154284">
                <paramPoly3 aU="0.00000000" bU="18.74357702" cU="18.74335210" dU="-12.49608026" aV="0.00000000" bV="0.00000000" cV="-0.27393570" dV="0.10262451" pRange="normalized"/>
            </geometry>
            <geometry s="979.63533092" x="6668.14924332" y="3577.64130691" hdg="-0.03760883" length="7.35240089">
                <paramPoly3 aU="0.00000000" bU="5.51411273" cU="5.51318629" dU="-3.67665247" aV="0.00000000" bV="-0.00000000" cV="-0.24727733" dV="0.09858482" pRange="normalized"/>
            </geometry>
            <geometry s="986.98773181" x="6675.48910119" y="3577.21633549" hdg="-0.07366962" length="24.99485762">
                <paramPoly3 aU="0.00000000" bU="18.74606309" cU="18.74673430" dU="-12.49831772" aV="0.00000000" bV="-0.00000000" cV="-0.11333307" dV="-0.00308379" pRange="normalized"/>
            </geometry>
            <geometry s="1011.98258943" x="6700.40721770" y="3575.26056556" hdg="-0.08625487" length="15.77017136">
                <paramPoly3 aU="0.00000000" bU="11.82740241" cU="11.82800411" dU="-7.88678152" aV="0.00000000" bV="0.00000000" cV="-0.27419255" dV="0.07604691" pRange="normalized"/>
            </geometry>
            <geometry s="1027.75276079" x="6716.10015071" y="3573.70472181" hdg="-0.11333465" length="24.99377284">
                <paramPoly3 aU="0.00000000" bU="18.74474650" cU="18.75170349" dU="-12.50450275" aV="0.00000000" bV="0.00000000" cV="-0.07136137" dV="-0.15752441" pRange="normalized"/>
            </geometry>
            <geometry s="1052.74653363" x="6740.90587693" y="3570.65091062" hdg="-0.14616553" length="39.90910345">
                <line/>
            </geometry>
            <geometry s="1092.65563708" x="6780.38942255" y="3564.83832402" hdg="-0.14616553" length="24.99069899">
                <paramPoly3 aU="0.00000000" bU="18.74119417" cU="18.74118591" dU="-12.50585677" aV="0.00000000" bV="0.00000000" cV="-1.14915766" dV="0.38341218" pRange="normalized"/>
            </geometry>
            <geometry s="1117.64633606" x="6804.98808929" y="3560.44302230" hdg="-0.20746355" length="68.81446327">
                <line/>
            </geometry>
            <geometry s="1186.46079934" x="6872.32693073" y="3546.26872199" hdg="-0.20746355" length="24.98814991">
                <paramPoly3 aU="0.00000000" bU="18.73878132" cU="18.73876791" dU="-12.50745675" aV="0.00000000" bV="0.00000000" cV="-1.29703381" dV="0.43286166" pRange="normalized"/>
            </geometry>
            <geometry s="1211.44894925" x="6896.58357655" y="3540.27977837" hdg="-0.27665251" length="46.47485380">
                <line/>
            </geometry>
            <geometry s="1257.92380305" x="6941.29123097" y="3527.58577697" hdg="-0.27665251" length="24.99514492">
                <paramPoly3 aU="0.00000000" bU="18.74540304" cU="18.74540079" dU="-12.50306088" aV="0.00000000" bV="-0.00000000" cV="-0.83033703" dV="0.27691469" pRange="normalized"/>
            </geometry>
            <geometry s="1282.91894797" x="6965.17765861" y="3520.22832169" hdg="-0.32094077" length="46.46357935">
                <line/>
            </geometry>
            <geometry s="1329.38252732" x="7009.26876400" y="3505.57094706" hdg="-0.32094077" length="24.99567449">
                <paramPoly3 aU="0.00000000" bU="18.74590441" cU="18.74590263" dU="-12.50272741" aV="0.00000000" bV="-0.00000000" cV="-0.78375420" dV="0.26136551" pRange="normalized"/>
            </geometry>
            <geometry s="1354.37820181" x="7032.81708534" y="3497.19219100" hdg="-0.36274404" length="31.18129318">
                <line/>
            </geometry>
            <geometry s="1385.55949498" x="7061.96930716" y="3486.12778830" hdg="-0.36274404" length="24.99538973">
                <paramPoly3 aU="0.00000000" bU="18.74563482" cU="18.74563278" dU="-12.50290674" aV="0.00000000" bV="0.00000000" cV="-0.80913615" dV="0.26983760" pRange="normalized"/>
            </geometry>
            <geometry s="1410.55488471" x="7085.14022629" y="3476.75668761" hdg="-0.40590132" length="32.04101678">
                <line/>
            </geometry>
            <geometry s="1442.59590149" x="7114.57781066" y="3464.10538796" hdg="-0.40590132" length="24.99673649">
                <paramPoly3 aU="0.00000000" bU="18.74690991" cU="18.74690889" dU="-12.50205836" aV="0.00000000" bV="-0.00000000" cV="-0.68079030" dV="0.22700489" pRange="normalized"/>
            </geometry>
            <geometry s="1467.59263799" x="7137.35973690" y="3453.82055216" hdg="-0.44221214" length="32.36039970">
                <line/>
            </geometry>
            <geometry s="1499.95303769" x="7166.60729961" y="3439.97224741" hdg="-0.44221214" length="24.99802825">
                <paramPoly3 aU="0.00000000" bU="18.74813298" cU="18.74813261" dU="-12.50124406" aV="0.00000000" bV="0.00000000" cV="-0.52918718" dV="0.17643085" pRange="normalized"/>
            </geometry>
            <geometry s="1524.95106593" x="7189.04702190" y="3428.95705781" hdg="-0.47043639" length="34.35116872">
                <line/>
            </geometry>
            <geometry s="1559.30223465" x="7219.66664269" y="3413.38652106" hdg="-0.47043639" length="24.98540050">
                <paramPoly3 aU="0.00000000" bU="18.73617909" cU="18.73615873" dU="-12.50918000" aV="0.00000000" bV="0.00000000" cV="-1.43957296" dV="0.48056455" pRange="normalized"/>
            </geometry>
            <geometry s="1584.28763515" x="7241.48337204" y="3401.21650601" hdg="-0.54723253" length="59.19141803">
                <line/>
            </geometry>
            <geometry s="1643.47905318" x="7292.03093582" y="3370.41767870" hdg="-0.54723253" length="24.99554080">
                <paramPoly3 aU="0.00000000" bU="18.74619742" cU="18.73919880" dU="-12.49553541" aV="0.00000000" bV="0.00000000" cV="-0.95539558" dV="0.45202985" pRange="normalized"/>
            </geometry>
            <geometry s="1668.47459399" x="7313.10955753" y="3356.98494901" hdg="-0.57682693" length="22.11487985">
                <paramPoly3 aU="0.00000000" bU="16.58597746" cU="16.58569553" dU="-11.05829895" aV="0.00000000" bV="-0.00000000" cV="-0.36792027" dV="0.13161344" pRange="normalized"/>
            </geometry>
            <geometry s="1690.58947384" x="7331.51605517" y="3344.72697212" hdg="-0.59738793" length="24.99586696">
                <paramPoly3 aU="0.00000000" bU="18.74675245" cU="18.74673279" dU="-12.49876932" aV="0.00000000" bV="0.00000000" cV="-0.32871257" dV="0.11032844" pRange="normalized"/>
            </geometry>
            <geometry s="1715.58534080" x="7352.05904059" y="3330.48726478" hdg="-0.61480195" length="21.83058545">
                <paramPoly3 aU="0.00000000" bU="16.37274819" cU="16.37318013" dU="-10.91667481" aV="0.00000000" bV="0.00000000" cV="-0.30428704" dV="0.08740159" pRange="normalized"/>
            </geometry>
            <geometry s="1737.41592625" x="7369.76599041" y="3317.71905127" hdg="-0.63595876" length="24.99513931">
                <paramPoly3 aU="0.00000000" bU="18.74585689" cU="18.75115992" dU="-12.50374142" aV="0.00000000" bV="0.00000000" cV="-0.15717622" dV="-0.08778983" pRange="normalized"/>
            </geometry>
            <geometry s="1762.41106556" x="7389.72764834" y="3302.67724168" hdg="-0.66678229" length="40.47530010">
                <line/>
            </geometry>
            <geometry s="1802.88636565" x="7421.53377698" y="3277.64486067" hdg="-0.66678229" length="24.99529678">
                <paramPoly3 aU="0.00000000" bU="18.74554681" cU="18.74554470" dU="-12.50296527" aV="0.00000000" bV="0.00000000" cV="-0.81725076" dV="0.27254629" pRange="normalized"/>
            </geometry>
            <geometry s="1827.88166243" x="7440.83296207" y="3261.76265014" hdg="-0.71037245" length="71.77621891">
                <line/>
            </geometry>
            <geometry s="1899.65788135" x="7495.24788084" y="3214.95621665" hdg="-0.71037245" length="24.98887260">
                <paramPoly3 aU="0.00000000" bU="18.73946537" cU="18.73945354" dU="-12.50700337" aV="0.00000000" bV="0.00000000" cV="-1.25688111" dV="0.41943089" pRange="normalized"/>
            </geometry>
            <geometry s="1924.64675395" x="7513.63345084" y="3198.03673958" hdg="-0.77741869" length="46.58140606">
                <line/>
            </geometry>
            <geometry s="1971.22816001" x="7546.83325577" y="3165.36258553" hdg="-0.77741869" length="24.99798314">
                <paramPoly3 aU="0.00000000" bU="18.74809027" cU="18.74808988" dU="-12.50127250" aV="0.00000000" bV="0.00000000" cV="-0.53520503" dV="0.17843802" pRange="normalized"/>
            </geometry>
            <geometry s="1996.22614315" x="7564.39753875" y="3147.57583049" hdg="-0.80596392" length="43.96499394">
                <line/>
            </geometry>
            <geometry s="2040.19113709" x="7594.83960780" y="3115.85515705" hdg="-0.80596392" length="24.98758391">
                <paramPoly3 aU="0.00000000" bU="18.73824560" cU="18.73823087" dU="-12.50781171" aV="0.00000000" bV="0.00000000" cV="-1.32763160" dV="0.44309838" pRange="normalized"/>
            </geometry>
            <geometry s="2065.17872100" x="7611.49012363" y="3097.22783996" hdg="-0.87678577" length="49.19536786">
                <line/>
            </geometry>
            <geometry s="2114.37408886" x="7642.95671965" y="3059.41200262" hdg="-0.87678577" length="24.99095201">
                <paramPoly3 aU="0.00000000" bU="18.74143369" cU="18.74142586" dU="-12.50569783" aV="0.00000000" bV="0.00000000" cV="-1.13342526" dV="0.37815348" pRange="normalized"/>
            </geometry>
            <geometry s="2139.36504087" x="7658.35217364" y="3039.72929348" hdg="-0.93724434" length="59.43183600">
                <line/>
            </geometry>
            <geometry s="2198.79687687" x="7693.53648261" y="2991.83140696" hdg="-0.93724434" length="24.99219149">
                <paramPoly3 aU="0.00000000" bU="18.74260701" cU="18.74260119" dU="-12.50491894" aV="0.00000000" bV="0.00000000" cV="-1.05296194" dV="0.35126399" pRange="normalized"/>
            </geometry>
            <geometry s="2223.78906836" x="7707.75957285" y="2971.28363493" hdg="-0.99340970" length="57.21796833">
                <line/>
            </geometry>
            <geometry s="2281.00703669" x="7738.99120435" y="2923.34115801" hdg="-0.99340970" length="24.99188280">
                <paramPoly3 aU="0.00000000" bU="18.74231479" cU="18.74230850" dU="-12.50511297" aV="0.00000000" bV="0.00000000" cV="-1.07356622" dV="0.35814864" pRange="normalized"/>
            </geometry>
            <geometry s="2305.99891948" x="7752.02647967" y="2902.02052586" hdg="-1.05067440" length="60.30032231">
                <line/>
            </geometry>
            <geometry s="2366.29924179" x="7781.99489241" y="2849.69440324" hdg="-1.05067440" length="24.99167594">
                <paramPoly3 aU="0.00000000" bU="18.74211898" cU="18.74211236" dU="-12.50524297" aV="0.00000000" bV="-0.00000000" cV="-1.08715417" dV="0.36268923" pRange="normalized"/>
            </geometry>
            <geometry s="2391.29091774" x="7793.78043790" y="2827.65862264" hdg="-1.10866409" length="59.15709438">
                <line/>
            </geometry>
            <geometry s="2450.44801212" x="7820.15608354" y="2774.70687920" hdg="-1.10866409" length="24.98787444">
                <paramPoly3 aU="0.00000000" bU="18.73852058" cU="18.73850654" dU="-12.50762953" aV="0.00000000" bV="0.00000000" cV="-1.31201523" dV="0.43787359" pRange="normalized"/>
            </geometry>
            <geometry s="2475.43588656" x="7830.50643400" y="2751.96693230" hdg="-1.17865254" length="64.10975728">
                <line/>
            </geometry>
            <geometry s="2539.54564384" x="7855.00728195" y="2692.72362526" hdg="-1.17865254" length="24.99249810">
                <paramPoly3 aU="0.00000000" bU="18.74289728" cU="18.74289190" dU="-12.50472618" aV="0.00000000" bV="0.00000000" cV="-1.03208831" dV="0.34428998" pRange="normalized"/>
            </geometry>
            <geometry s="2564.53814195" x="7863.91871451" y="2669.37597132" hdg="-1.23370421" length="59.68086677">
                <line/>
            </geometry>
            <geometry s="2624.21900872" x="7883.65781872" y="2613.05391859" hdg="-1.23370421" length="24.99045436">
                <paramPoly3 aU="0.00000000" bU="18.74096261" cU="18.74095390" dU="-12.50601041" aV="0.00000000" bV="0.00000000" cV="-1.16416563" dV="0.38842911" pRange="normalized"/>
            </geometry>
            <geometry s="2649.20946307" x="7891.18637794" y="2589.22707557" hdg="-1.29580304" length="48.56195339">
                <line/>
            </geometry>
            <geometry s="2697.77141646" x="7904.37291390" y="2542.48973946" hdg="-1.29580304" length="24.99949099">
                <paramPoly3 aU="0.00000000" bU="18.74951801" cU="18.74951798" dU="-12.50032129" aV="0.00000000" bV="0.00000000" cV="-0.26888221" dV="0.08963201" pRange="normalized"/>
            </geometry>
            <geometry s="2722.77090745" x="7910.98856156" y="2518.38162726" hdg="-1.31014355" length="53.74351579">
                <line/>
            </geometry>
            <geometry s="2776.51442324" x="7924.83887484" y="2466.45346235" hdg="-1.31014355" length="24.99110372">
                <paramPoly3 aU="0.00000000" bU="18.74157730" cU="18.74156973" dU="-12.50560253" aV="0.00000000" bV="-0.00000000" cV="-1.12388656" dV="0.37496528" pRange="normalized"/>
            </geometry>
            <geometry s="2801.50552696" x="7930.55224704" y="2442.12660495" hdg="-1.37009315" length="66.80989184">
                <line/>
            </geometry>
            <geometry s="2868.31541880" x="7943.87136279" y="2376.65781237" hdg="-1.37009315" length="24.99987288">
                <paramPoly3 aU="0.00000000" bU="18.74987963" cU="18.74987962" dU="-12.50008025" aV="0.00000000" bV="0.00000000" cV="0.13437307" dV="-0.04479160" pRange="normalized"/>
            </geometry>
            <geometry s="2893.31529167" x="7948.94304305" y="2352.17781983" hdg="-1.36292657" length="94.03130924">
                <line/>
            </geometry>
            <geometry s="2987.34660091" x="7968.34884677" y="2260.17074457" hdg="-1.36292657" length="24.99924434">
                <paramPoly3 aU="0.00000000" bU="18.74928446" cU="18.74928441" dU="-12.50047693" aV="0.00000000" bV="-0.00000000" cV="0.32760994" dV="-0.10921165" pRange="normalized"/>
            </geometry>
            <geometry s="3012.34584525" x="7973.72154931" y="2235.75586455" hdg="-1.34545382" length="40.52426042">
                <line/>
            </geometry>
            <geometry s="3052.87010567" x="7982.77629904" y="2196.25615329" hdg="-1.34545382" length="24.99906131">
                <paramPoly3 aU="0.00000000" bU="18.74920351" cU="18.74765130" dU="-12.49897874" aV="0.00000000" bV="0.00000000" cV="-0.44376378" dV="0.21334298" pRange="normalized"/>
            </geometry>
            <geometry s="3077.86916698" x="7988.13723479" y="2171.83879738" hdg="-1.35865469" length="19.02694727">
                <paramPoly3 aU="0.00000000" bU="14.27019578" cU="14.26951523" dU="-9.51304391" aV="0.00000000" bV="-0.00000000" cV="-0.24499235" dV="0.14540895" pRange="normalized"/>
            </geometry>