<?xml version="1.0" encoding="UTF-8"?>

<!-- generated on 2025-05-18 12:10:56 by Eclipse SUMO netconvert Version 1.23.1
<netconvertConfiguration xmlns:xsi="http://www.w3.org/2001/XMLSchema-instance" xsi:noNamespaceSchemaLocation="http://sumo.dlr.de/xsd/netconvertConfiguration.xsd">

    <input>
        <type-files value="${SUMO_HOME}/data/typemap/osmNetconvert.typ.xml"/>
        <osm-files value="osm_bbox.osm.xml.gz"/>
    </input>

    <output>
        <output-file value="osm.net.xml.gz"/>
        <output.street-names value="true"/>
        <output.original-names value="true"/>
    </output>

    <projection>
        <proj.utm value="true"/>
    </projection>

    <processing>
        <geometry.remove value="true"/>
        <roundabouts.guess value="true"/>
    </processing>

    <tls_building>
        <tls.discard-simple value="true"/>
        <tls.join value="true"/>
        <tls.guess-signals value="true"/>
        <tls.default-type value="actuated"/>
    </tls_building>

    <ramp_guessing>
        <ramps.guess value="true"/>
    </ramp_guessing>

    <junctions>
        <junctions.join value="true"/>
        <junctions.corner-detail value="5"/>
    </junctions>

</netconvertConfiguration>
-->

<net version="1.20" junctionCornerDetail="5" limitTurnSpeed="5.50" xmlns:xsi="http://www.w3.org/2001/XMLSchema-instance" xsi:noNamespaceSchemaLocation="http://sumo.dlr.de/xsd/net_file.xsd">

    <location netOffset="-450811.72,-4485927.90" convBoundary="0.00,0.00,14097.28,7008.55" origBoundary="-3.581216,40.515846,-3.412150,40.596445" projParameter="+proj=utm +zone=30 +ellps=WGS84 +datum=WGS84 +units=m +no_defs"/>

    <type id="highway.trunk" priority="13" numLanes="2" speed="27.78" disallow="pedestrian bicycle tram rail_urban rail rail_electric rail_fast ship container cable_car subway aircraft wheelchair scooter drone" oneway="0"/>
    <type id="highway.trunk_link" priority="8" numLanes="1" speed="22.22" disallow="pedestrian bicycle tram rail_urban rail rail_electric rail_fast ship container cable_car subway aircraft wheelchair scooter drone" oneway="0"/>

    <edge id=":1390060208_0" function="internal">
        <lane id=":1390060208_0_0" index="0" disallow="pedestrian bicycle tram rail_urban rail rail_electric rail_fast ship container cable_car subway aircraft wheelchair scooter drone" speed="25.00" length="8.04" shape="5273.67,4950.82 5269.70,4957.81"/>
    </edge>
    <edge id=":1390060208_1" function="internal">
        <lane id=":1390060208_1_0" index="0" disallow="pedestrian bicycle tram rail_urban rail rail_electric rail_fast ship container cable_car subway aircraft wheelchair scooter drone" speed="3.65" length="2.34" shape="5273.67,4950.82 5272.39,4951.48 5271.50,4951.45"/>
    </edge>
    <edge id=":1390060208_5" function="internal">
        <lane id=":1390060208_5_0" index="0" disallow="pedestrian bicycle tram rail_urban rail rail_electric rail_fast ship container cable_car subway aircraft wheelchair scooter drone" speed="3.65" length="2.34" shape="5271.50,4951.45 5270.99,4950.71 5270.87,4949.27"/>
    </edge>
    <edge id=":1390060208_2" function="internal">
        <lane id=":1390060208_2_0" index="0" disallow="pedestrian bicycle tram rail_urban rail rail_electric rail_fast ship container cable_car subway aircraft wheelchair scooter drone" speed="25.00" length="8.74" shape="5266.93,4956.20 5267.73,4953.84 5267.53,4951.98 5267.32,4950.11 5268.07,4947.72"/>
    </edge>
    <edge id=":1390060208_3" function="internal">
        <lane id=":1390060208_3_0" index="0" disallow="pedestrian bicycle tram rail_urban rail rail_electric rail_fast ship container cable_car subway aircraft wheelchair scooter drone" speed="3.65" length="1.44" shape="5266.93,4956.20 5268.23,4955.57"/>
    </edge>
    <edge id=":1390060208_6" function="internal">
        <lane id=":1390060208_6_0" index="0" disallow="pedestrian bicycle tram rail_urban rail rail_electric rail_fast ship container cable_car subway aircraft wheelchair scooter drone" speed="3.65" length="3.23" shape="5268.23,4955.57 5269.12,4955.62 5269.61,4956.37 5269.70,4957.81"/>
    </edge>
    <edge id=":1390060208_4" function="internal">
        <lane id=":1390060208_4_0" index="0" disallow="pedestrian bicycle tram rail_urban rail rail_electric rail_fast ship container cable_car subway aircraft wheelchair scooter drone" speed="23.61" length="8.14" shape="5268.02,4956.84 5269.17,4954.76 5269.58,4953.14 5269.93,4951.48 5270.87,4949.27"/>
    </edge>
    <edge id=":1390060870_0" function="internal">
        <lane id=":1390060870_0_0" index="0" disallow="pedestrian bicycle tram rail_urban rail rail_electric rail_fast ship container cable_car subway aircraft wheelchair scooter drone" speed="18.06" length="0.10" shape="548.68,6766.83 548.68,6766.83"/>
        <lane id=":1390060870_0_1" index="1" disallow="pedestrian bicycle tram rail_urban rail rail_electric rail_fast ship container cable_car subway aircraft wheelchair scooter drone" speed="18.06" length="0.10" shape="549.08,6763.66 549.08,6763.66"/>
    </edge>
    <edge id=":1390850296_0" function="internal">
        <lane id=":1390850296_0_0" index="0" disallow="pedestrian bicycle tram rail_urban rail rail_electric rail_fast ship container cable_car subway aircraft wheelchair scooter drone" speed="9.72" length="0.21" shape="9202.83,2064.87 9202.77,2065.07"/>
    </edge>
    <edge id=":2063925674_0" function="internal">
        <lane id=":2063925674_0_0" index="0" disallow="pedestrian bicycle tram rail_urban rail rail_electric rail_fast ship container cable_car subway aircraft wheelchair scooter drone" speed="19.45" length="9.86" shape="1773.65,6936.05 1771.10,6934.60 1769.47,6933.25 1767.76,6932.21 1765.00,6931.68"/>
    </edge>
    <edge id=":2063925674_1" function="internal">
        <lane id=":2063925674_1_0" index="0" disallow="pedestrian bicycle tram rail_urban rail rail_electric rail_fast ship container cable_car subway aircraft wheelchair scooter drone" speed="27.78" length="10.10" shape="1774.97,6932.73 1765.00,6931.68"/>
        <lane id=":2063925674_1_1" index="1" disallow="pedestrian bicycle tram rail_urban rail rail_electric rail_fast ship container cable_car subway aircraft wheelchair scooter drone" speed="27.78" length="10.10" shape="1775.30,6929.54 1765.19,6928.49"/>
    </edge>
    <edge id=":21702567_0" function="internal">
        <lane id=":21702567_0_0" index="0" disallow="pedestrian bicycle tram rail_urban rail rail_electric rail_fast ship container cable_car subway aircraft wheelchair scooter drone" speed="18.06" length="10.29" shape="512.48,6731.33 514.22,6733.75 515.81,6735.09 517.67,6736.18 520.25,6737.83"/>
        <lane id=":21702567_0_1" index="1" disallow="pedestrian bicycle tram rail_urban rail rail_electric rail_fast ship container cable_car subway aircraft wheelchair scooter drone" speed="18.06" length="11.03" shape="512.48,6731.33 513.97,6734.26 514.83,6736.43 516.00,6738.32 518.38,6740.43"/>
    </edge>
    <edge id=":21702567_2" function="internal">
        <lane id=":21702567_2_0" index="0" disallow="pedestrian bicycle tram rail_urban rail rail_electric rail_fast ship container cable_car subway aircraft wheelchair scooter drone" speed="11.11" length="10.92" shape="512.48,6731.33 514.00,6734.34 514.52,6736.62 514.59,6739.06 514.80,6742.52"/>
        <lane id=":21702567_2_1" index="1" disallow="pedestrian bicycle tram rail_urban rail rail_electric rail_fast ship container cable_car subway aircraft wheelchair scooter drone" speed="11.11" length="10.92" shape="509.74,6732.99 511.06,6735.64 511.45,6737.66 511.46,6739.82 511.62,6742.87"/>
    </edge>
    <edge id=":21702569_0" function="internal">
        <lane id=":21702569_0_0" index="0" disallow="pedestrian bicycle tram rail_urban rail rail_electric rail_fast ship container cable_car subway aircraft wheelchair scooter drone" speed="11.11" length="16.47" shape="514.41,6766.46 509.72,6767.56 506.63,6768.79 503.68,6770.41 499.35,6772.65"/>
        <lane id=":21702569_0_1" index="1" disallow="pedestrian bicycle tram rail_urban rail rail_electric rail_fast ship container cable_car subway aircraft wheelchair scooter drone" speed="11.11" length="16.47" shape="513.16,6763.44 508.41,6764.57 505.31,6765.83 502.33,6767.49 497.97,6769.76"/>
    </edge>
    <edge id=":21702569_2" function="internal">
        <lane id=":21702569_2_0" index="0" disallow="pedestrian bicycle tram rail_urban rail rail_electric rail_fast ship container cable_car subway aircraft wheelchair scooter drone" speed="11.11" length="16.50" shape="510.81,6760.23 507.85,6764.43 505.95,6767.53 503.61,6770.09 499.35,6772.65"/>
        <lane id=":21702569_2_1" index="1" disallow="pedestrian bicycle tram rail_urban rail rail_electric rail_fast ship container cable_car subway aircraft wheelchair scooter drone" speed="11.11" length="16.50" shape="508.32,6758.22 505.63,6762.10 503.94,6764.99 501.85,6767.39 497.97,6769.76"/>
    </edge>
    <edge id=":21702571_0" function="internal">
        <lane id=":21702571_0_0" index="0" disallow="pedestrian bicycle tram rail_urban rail rail_electric rail_fast ship container cable_car subway aircraft wheelchair scooter drone" speed="15.81" length="13.20" shape="450.06,6760.10 447.76,6756.97 445.86,6755.05 443.54,6753.64 439.98,6752.06"/>
        <lane id=":21702571_0_1" index="1" disallow="pedestrian bicycle tram rail_urban rail rail_electric rail_fast ship container cable_car subway aircraft wheelchair scooter drone" speed="16.11" length="13.72" shape="450.06,6760.10 448.06,6756.51 446.93,6753.72 445.37,6751.46 442.07,6749.47"/>
    </edge>
    <edge id=":21702571_2" function="internal">
        <lane id=":21702571_2_0" index="0" disallow="pedestrian bicycle tram rail_urban rail rail_electric rail_fast ship container cable_car subway aircraft wheelchair scooter drone" speed="11.11" length="13.79" shape="450.06,6760.10 447.64,6756.61 446.25,6753.95 445.71,6751.06 445.87,6746.88"/>
        <lane id=":21702571_2_1" index="1" disallow="pedestrian bicycle tram rail_urban rail rail_electric rail_fast ship container cable_car subway aircraft wheelchair scooter drone" speed="11.11" length="13.79" shape="452.68,6758.27 450.51,6755.04 449.34,6752.57 448.96,6749.88 449.15,6746.02"/>
    </edge>
    <edge id=":21702583_0" function="internal">
        <lane id=":21702583_0_0" index="0" disallow="pedestrian bicycle tram rail_urban rail rail_electric rail_fast ship container cable_car subway aircraft wheelchair scooter drone" speed="26.39" length="0.50" shape="814.49,6672.73 814.69,6672.63 814.84,6672.57 814.98,6672.52 815.19,6672.46"/>
        <lane id=":21702583_0_1" index="1" disallow="pedestrian bicycle tram rail_urban rail rail_electric rail_fast ship container cable_car subway aircraft wheelchair scooter drone" speed="26.39" length="0.50" shape="815.88,6675.61 815.95,6675.58 816.00,6675.56 816.05,6675.54 816.12,6675.52"/>
    </edge>
    <edge id=":21702595_0" function="internal">
        <lane id=":21702595_0_0" index="0" disallow="pedestrian bicycle tram rail_urban rail rail_electric rail_fast ship container cable_car subway aircraft wheelchair scooter drone" speed="9.15" length="9.91" shape="1786.88,6872.10 1789.59,6872.11 1791.88,6871.76 1793.74,6871.04 1795.17,6869.95"/>
        <lane id=":21702595_0_1" index="1" disallow="pedestrian bicycle tram rail_urban rail rail_electric rail_fast ship container cable_car subway aircraft wheelchair scooter drone" speed="10.17" length="9.91" shape="1787.29,6875.33 1790.45,6875.30 1793.20,6874.77 1795.54,6873.72 1797.48,6872.16"/>
    </edge>
    <edge id=":21702595_2" function="internal">
        <lane id=":21702595_2_0" index="0" disallow="pedestrian bicycle tram rail_urban rail rail_electric rail_fast ship container cable_car subway aircraft wheelchair scooter drone" speed="11.11" length="10.12" shape="1789.83,6878.98 1790.94,6876.03 1791.84,6874.05 1793.07,6872.27 1795.17,6869.95"/>
        <lane id=":21702595_2_1" index="1" disallow="pedestrian bicycle tram rail_urban rail rail_electric rail_fast ship container cable_car subway aircraft wheelchair scooter drone" speed="11.11" length="10.12" shape="1792.72,6880.40 1793.71,6877.72 1794.50,6875.90 1795.58,6874.28 1797.48,6872.16"/>
    </edge>
    <edge id=":21702601_0" function="internal">
        <lane id=":21702601_0_0" index="0" disallow="pedestrian bicycle tram rail_urban rail rail_electric rail_fast ship container cable_car subway aircraft wheelchair scooter drone" speed="8.60" length="7.44" shape="1890.27,6917.96 1888.34,6918.78 1886.78,6919.82 1885.57,6921.09 1884.72,6922.58"/>
    </edge>
    <edge id=":21702601_1" function="internal">
        <lane id=":21702601_1_0" index="0" disallow="pedestrian bicycle tram rail_urban rail rail_electric rail_fast ship container cable_car subway aircraft wheelchair scooter drone" speed="11.11" length="7.74" shape="1886.90,6914.89 1886.39,6917.22 1886.05,6918.81 1885.58,6920.37 1884.72,6922.58"/>
        <lane id=":21702601_1_1" index="1" disallow="pedestrian bicycle tram rail_urban rail rail_electric rail_fast ship container cable_car subway aircraft wheelchair scooter drone" speed="11.11" length="7.74" shape="1883.78,6914.16 1883.31,6916.33 1883.00,6917.82 1882.57,6919.28 1881.77,6921.34"/>
    </edge>
    <edge id=":21702630_0" function="internal">
        <lane id=":21702630_0_0" index="0" disallow="pedestrian bicycle tram rail_urban rail rail_electric rail_fast ship container cable_car subway aircraft wheelchair scooter drone" speed="26.39" length="0.45" shape="829.87,6698.62 829.80,6698.62 829.76,6698.62 829.71,6698.63 829.64,6698.64"/>
        <lane id=":21702630_0_1" index="1" disallow="pedestrian bicycle tram rail_urban rail rail_electric rail_fast ship container cable_car subway aircraft wheelchair scooter drone" speed="26.39" length="0.45" shape="829.77,6695.42 829.57,6695.43 829.44,6695.44 829.30,6695.45 829.10,6695.49"/>
    </edge>
    <edge id=":255463705_0" function="internal">
        <lane id=":255463705_0_0" index="0" disallow="pedestrian bicycle tram rail_urban rail rail_electric rail_fast ship container cable_car subway aircraft wheelchair scooter drone" speed="23.61" length="7.45" shape="13500.97,283.93 13499.03,284.99 13497.72,285.76 13496.45,286.58 13494.62,287.82"/>
    </edge>
    <edge id=":255463705_1" function="internal">
        <lane id=":255463705_1_0" index="0" disallow="pedestrian bicycle tram rail_urban rail rail_electric rail_fast ship container cable_car subway aircraft wheelchair scooter drone" speed="26.39" length="8.17" shape="13492.82,285.17 13494.55,283.39 13495.23,281.64 13495.95,279.94 13497.78,278.32"/>
        <lane id=":255463705_1_1" index="1" disallow="pedestrian bicycle tram rail_urban rail rail_electric rail_fast ship container cable_car subway aircraft wheelchair scooter drone" speed="26.39" length="8.17" shape="13492.82,285.17 13499.36,281.11"/>
    </edge>
    <edge id=":255463718_0" function="internal">
        <lane id=":255463718_0_0" index="0" disallow="pedestrian bicycle tram rail_urban rail rail_electric rail_fast ship container cable_car subway aircraft wheelchair scooter drone" speed="23.61" length="3.30" shape="7662.67,3637.90 7659.94,3636.04"/>
    </edge>
    <edge id=":255463718_1" function="internal">
        <lane id=":255463718_1_0" index="0" disallow="pedestrian bicycle tram rail_urban rail rail_electric rail_fast ship container cable_car subway aircraft wheelchair scooter drone" speed="25.00" length="3.02" shape="7662.67,3637.90 7659.68,3637.40"/>
    </edge>
    <edge id=":255463718_2" function="internal">
        <lane id=":255463718_2_0" index="0" disallow="pedestrian bicycle tram rail_urban rail rail_electric rail_fast ship container cable_car subway aircraft wheelchair scooter drone" speed="3.65" length="1.44" shape="7662.67,3637.90 7661.60,3636.93"/>
    </edge>
    <edge id=":255463718_4" function="internal">
        <lane id=":255463718_4_0" index="0" disallow="pedestrian bicycle tram rail_urban rail rail_electric rail_fast ship container cable_car subway aircraft wheelchair scooter drone" speed="3.65" length="3.23" shape="7661.60,3636.93 7661.32,3636.08 7661.83,3635.35 7663.13,3634.73"/>
    </edge>
    <edge id=":255463718_3" function="internal">
        <lane id=":255463718_3_0" index="0" disallow="pedestrian bicycle tram rail_urban rail rail_electric rail_fast ship container cable_car subway aircraft wheelchair scooter drone" speed="25.00" length="2.90" shape="7660.27,3634.26 7663.13,3634.73"/>
    </edge>
    <edge id=":255463730_0" function="internal">
        <lane id=":255463730_0_0" index="0" disallow="pedestrian bicycle tram rail_urban rail rail_electric rail_fast ship container cable_car subway aircraft wheelchair scooter drone" speed="25.00" length="7.14" shape="5573.95,4002.66 5572.58,4004.27 5571.67,4005.40 5570.83,4006.59 5569.67,4008.36"/>
    </edge>
    <edge id=":255463730_1" function="internal">
        <lane id=":255463730_1_0" index="0" disallow="pedestrian bicycle tram rail_urban rail rail_electric rail_fast ship container cable_car subway aircraft wheelchair scooter drone" speed="3.65" length="1.44" shape="5573.95,4002.66 5572.56,4003.05"/>
    </edge>
    <edge id=":255463730_6" function="internal">
        <lane id=":255463730_6_0" index="0" disallow="pedestrian bicycle tram rail_urban rail rail_electric rail_fast ship container cable_car subway aircraft wheelchair scooter drone" speed="3.65" length="3.23" shape="5572.56,4003.05 5571.69,4002.83 5571.35,4002.00 5571.53,4000.57"/>
    </edge>
    <edge id=":255463730_2" function="internal">
        <lane id=":255463730_2_0" index="0" disallow="pedestrian bicycle tram rail_urban rail rail_electric rail_fast ship container cable_car subway aircraft wheelchair scooter drone" speed="25.00" length="7.77" shape="5564.31,4004.86 5565.61,4002.88 5566.55,4001.55 5567.56,4000.29 5569.10,3998.49"/>
        <lane id=":255463730_2_1" index="1" disallow="pedestrian bicycle tram rail_urban rail rail_electric rail_fast ship container cable_car subway aircraft wheelchair scooter drone" speed="25.00" length="7.77" shape="5566.99,4006.61 5568.22,4004.73 5569.11,4003.48 5570.07,4002.28 5571.53,4000.57"/>
    </edge>
    <edge id=":255463730_4" function="internal">
        <lane id=":255463730_4_0" index="0" disallow="pedestrian bicycle tram rail_urban rail rail_electric rail_fast ship container cable_car subway aircraft wheelchair scooter drone" speed="3.65" length="1.44" shape="5566.99,4006.61 5568.32,4006.04"/>
    </edge>
    <edge id=":255463730_7" function="internal">
        <lane id=":255463730_7_0" index="0" disallow="pedestrian bicycle tram rail_urban rail rail_electric rail_fast ship container cable_car subway aircraft wheelchair scooter drone" speed="3.65" length="3.23" shape="5568.32,4006.04 5569.20,4006.14 5569.66,4006.91 5569.67,4008.36"/>
    </edge>
    <edge id=":255463730_5" function="internal">
        <lane id=":255463730_5_0" index="0" disallow="pedestrian bicycle tram rail_urban rail rail_electric rail_fast ship container cable_car subway aircraft wheelchair scooter drone" speed="23.61" length="7.64" shape="5568.13,4007.35 5569.27,4005.42 5569.75,4003.90 5570.27,4002.42 5571.53,4000.57"/>
    </edge>
    <edge id=":255621745_0" function="internal">
        <lane id=":255621745_0_0" index="0" disallow="pedestrian bicycle tram rail_urban rail rail_electric rail_fast ship container cable_car subway aircraft wheelchair scooter drone" speed="22.22" length="8.85" shape="13803.60,220.90 13801.36,222.47 13800.16,224.13 13798.90,225.63 13796.48,226.70"/>
        <lane id=":255621745_0_1" index="1" disallow="pedestrian bicycle tram rail_urban rail rail_electric rail_fast ship container cable_car subway aircraft wheelchair scooter drone" speed="22.22" length="8.85" shape="13803.60,220.90 13801.36,221.92 13799.78,222.54 13798.16,223.01 13795.76,223.58"/>
    </edge>
    <edge id=":255621790_0" function="internal">
        <lane id=":255621790_0_0" index="0" disallow="pedestrian bicycle tram rail_urban rail rail_electric rail_fast ship container cable_car subway aircraft wheelchair scooter drone" speed="3.68" length="4.66" shape="13497.85,445.05 13496.62,445.78 13495.72,445.80 13495.17,445.10 13494.97,443.67"/>
    </edge>
    <edge id=":255621963_0" function="internal">
        <lane id=":255621963_0_0" index="0" disallow="pedestrian bicycle tram rail_urban rail rail_electric rail_fast ship container cable_car subway aircraft wheelchair scooter drone" speed="22.22" length="3.22" shape="13575.84,308.19 13573.88,310.76"/>
    </edge>
    <edge id=":255621963_1" function="internal">
        <lane id=":255621963_1_0" index="0" disallow="pedestrian bicycle tram rail_urban rail rail_electric rail_fast ship container cable_car subway aircraft wheelchair scooter drone" speed="22.22" length="3.30" shape="13573.33,306.20 13572.72,306.97 13572.27,307.47 13571.79,307.93 13571.04,308.57"/>
    </edge>
    <edge id=":255621968_0" function="internal">
        <lane id=":255621968_0_0" index="0" disallow="pedestrian bicycle tram rail_urban rail rail_electric rail_fast ship container cable_car subway aircraft wheelchair scooter drone" speed="22.22" length="4.00" shape="13529.10,307.89 13529.03,306.70 13529.00,305.89 13529.00,305.08 13529.05,303.89"/>
    </edge>
    <edge id=":255621968_1" function="internal">
        <lane id=":255621968_1_0" index="0" disallow="pedestrian bicycle tram rail_urban rail rail_electric rail_fast ship container cable_car subway aircraft wheelchair scooter drone" speed="10.71" length="3.69" shape="13532.90,307.59 13532.49,306.59 13532.28,305.86 13532.22,305.11 13532.24,304.02"/>
    </edge>
    <edge id=":255970751_0" function="internal">
        <lane id=":255970751_0_0" index="0" disallow="pedestrian bicycle tram rail_urban rail rail_electric rail_fast ship container cable_car subway aircraft wheelchair scooter drone" speed="18.06" length="3.19" shape="9403.29,1383.04 9400.49,1384.57"/>
    </edge>
    <edge id=":255970751_1" function="internal">
        <lane id=":255970751_1_0" index="0" disallow="pedestrian bicycle tram rail_urban rail rail_electric rail_fast ship container cable_car subway aircraft wheelchair scooter drone" speed="25.00" length="2.80" shape="9403.29,1383.04 9401.71,1385.35"/>
    </edge>
    <edge id=":255970751_2" function="internal">
        <lane id=":255970751_2_0" index="0" disallow="pedestrian bicycle tram rail_urban rail rail_electric rail_fast ship container cable_car subway aircraft wheelchair scooter drone" speed="3.65" length="1.44" shape="9403.29,1383.04 9401.94,1383.53"/>
    </edge>
    <edge id=":255970751_4" function="internal">
        <lane id=":255970751_4_0" index="0" disallow="pedestrian bicycle tram rail_urban rail rail_electric rail_fast ship container cable_car subway aircraft wheelchair scooter drone" speed="3.65" length="3.23" shape="9401.94,1383.53 9401.05,1383.38 9400.64,1382.59 9400.71,1381.15"/>
    </edge>
    <edge id=":255970751_3" function="internal">
        <lane id=":255970751_3_0" index="0" disallow="pedestrian bicycle tram rail_urban rail rail_electric rail_fast ship container cable_car subway aircraft wheelchair scooter drone" speed="25.00" length="3.00" shape="9399.01,1383.62 9400.71,1381.15"/>
    </edge>
    <edge id=":255970752_0" function="internal">
        <lane id=":255970752_0_0" index="0" disallow="pedestrian bicycle tram rail_urban rail rail_electric rail_fast ship container cable_car subway aircraft wheelchair scooter drone" speed="25.00" length="2.51" shape="9492.02,1286.08 9491.43,1286.54 9491.04,1286.87 9490.67,1287.21 9490.13,1287.73"/>
    </edge>
    <edge id=":255970752_1" function="internal">
        <lane id=":255970752_1_0" index="0" disallow="pedestrian bicycle tram rail_urban rail rail_electric rail_fast ship container cable_car subway aircraft wheelchair scooter drone" speed="3.65" length="1.44" shape="9492.02,1286.08 9490.58,1286.19"/>
    </edge>
    <edge id=":255970752_5" function="internal">
        <lane id=":255970752_5_0" index="0" disallow="pedestrian bicycle tram rail_urban rail rail_electric rail_fast ship container cable_car subway aircraft wheelchair scooter drone" speed="3.65" length="3.23" shape="9490.58,1286.19 9489.77,1285.81 9489.59,1284.93 9490.04,1283.56"/>
    </edge>
    <edge id=":255970752_2" function="internal">
        <lane id=":255970752_2_0" index="0" disallow="pedestrian bicycle tram rail_urban rail rail_electric rail_fast ship container cable_car subway aircraft wheelchair scooter drone" speed="25.00" length="2.87" shape="9487.89,1285.45 9488.50,1284.86 9488.93,1284.46 9489.38,1284.09 9490.04,1283.56"/>
    </edge>
    <edge id=":255970752_3" function="internal">
        <lane id=":255970752_3_0" index="0" disallow="pedestrian bicycle tram rail_urban rail rail_electric rail_fast ship container cable_car subway aircraft wheelchair scooter drone" speed="3.65" length="1.44" shape="9487.89,1285.45 9489.31,1285.18"/>
    </edge>
    <edge id=":255970752_6" function="internal">
        <lane id=":255970752_6_0" index="0" disallow="pedestrian bicycle tram rail_urban rail rail_electric rail_fast ship container cable_car subway aircraft wheelchair scooter drone" speed="3.65" length="3.23" shape="9489.31,1285.18 9490.15,1285.47 9490.43,1286.32 9490.13,1287.73"/>
    </edge>
    <edge id=":255970752_4" function="internal">
        <lane id=":255970752_4_0" index="0" disallow="pedestrian bicycle tram rail_urban rail rail_electric rail_fast ship container cable_car subway aircraft wheelchair scooter drone" speed="23.61" length="3.17" shape="9488.96,1286.54 9490.04,1283.56"/>
    </edge>
    <edge id=":255970885_0" function="internal">
        <lane id=":255970885_0_0" index="0" disallow="pedestrian bicycle tram rail_urban rail rail_electric rail_fast ship container cable_car subway aircraft wheelchair scooter drone" speed="16.67" length="8.18" shape="9178.53,2147.35 9178.10,2149.70 9178.20,2151.38 9178.33,2153.07 9177.99,2155.46"/>
    </edge>
    <edge id=":255970885_1" function="internal">
        <lane id=":255970885_1_0" index="0" disallow="pedestrian bicycle tram rail_urban rail rail_electric rail_fast ship container cable_car subway aircraft wheelchair scooter drone" speed="25.00" length="7.99" shape="9174.88,2154.68 9176.79,2146.92"/>
    </edge>
    <edge id=":255970885_2" function="internal">
        <lane id=":255970885_2_0" index="0" disallow="pedestrian bicycle tram rail_urban rail rail_electric rail_fast ship container cable_car subway aircraft wheelchair scooter drone" speed="3.65" length="1.44" shape="9174.88,2154.68 9175.95,2153.71"/>
    </edge>
    <edge id=":255970885_5" function="internal">
        <lane id=":255970885_5_0" index="0" disallow="pedestrian bicycle tram rail_urban rail rail_electric rail_fast ship container cable_car subway aircraft wheelchair scooter drone" speed="3.65" length="3.23" shape="9175.95,2153.71 9176.82,2153.52 9177.50,2154.10 9177.99,2155.46"/>
    </edge>
    <edge id=":255970885_3" function="internal">
        <lane id=":255970885_3_0" index="0" disallow="pedestrian bicycle tram rail_urban rail rail_electric rail_fast ship container cable_car subway aircraft wheelchair scooter drone" speed="25.00" length="8.01" shape="9179.90,2147.68 9177.99,2155.46"/>
    </edge>
    <edge id=":255970885_4" function="internal">
        <lane id=":255970885_4_0" index="0" disallow="pedestrian bicycle tram rail_urban rail rail_electric rail_fast ship container cable_car subway aircraft wheelchair scooter drone" speed="3.65" length="1.44" shape="9179.90,2147.68 9178.84,2148.66"/>
    </edge>
    <edge id=":255970885_6" function="internal">
        <lane id=":255970885_6_0" index="0" disallow="pedestrian bicycle tram rail_urban rail rail_electric rail_fast ship container cable_car subway aircraft wheelchair scooter drone" speed="3.65" length="3.23" shape="9178.84,2148.66 9177.97,2148.86 9177.29,2148.28 9176.79,2146.92"/>
    </edge>
    <edge id=":255970895_0" function="internal">
        <lane id=":255970895_0_0" index="0" disallow="pedestrian bicycle tram rail_urban rail rail_electric rail_fast ship container cable_car subway aircraft wheelchair scooter drone" speed="25.00" length="7.99" shape="9153.72,2252.25 9151.79,2260.00"/>
    </edge>
    <edge id=":255970895_1" function="internal">
        <lane id=":255970895_1_0" index="0" disallow="pedestrian bicycle tram rail_urban rail rail_electric rail_fast ship container cable_car subway aircraft wheelchair scooter drone" speed="25.00" length="8.01" shape="9148.69,2259.24 9150.62,2251.47"/>
    </edge>
    <edge id=":255970895_2" function="internal">
        <lane id=":255970895_2_0" index="0" disallow="pedestrian bicycle tram rail_urban rail rail_electric rail_fast ship container cable_car subway aircraft wheelchair scooter drone" speed="18.06" length="8.17" shape="9148.69,2259.24 9149.50,2256.98 9150.39,2255.54 9151.25,2254.09 9151.94,2251.80"/>
    </edge>
    <edge id=":255970895_3" function="internal">
        <lane id=":255970895_3_0" index="0" disallow="pedestrian bicycle tram rail_urban rail rail_electric rail_fast ship container cable_car subway aircraft wheelchair scooter drone" speed="3.65" length="1.44" shape="9148.69,2259.24 9149.75,2258.27"/>
    </edge>
    <edge id=":255970895_4" function="internal">
        <lane id=":255970895_4_0" index="0" disallow="pedestrian bicycle tram rail_urban rail rail_electric rail_fast ship container cable_car subway aircraft wheelchair scooter drone" speed="3.65" length="3.23" shape="9149.75,2258.27 9150.62,2258.07 9151.30,2258.65 9151.79,2260.00"/>
    </edge>
    <edge id=":25686483_0" function="internal">
        <lane id=":25686483_0_0" index="0" disallow="pedestrian bicycle tram rail_urban rail rail_electric rail_fast ship container cable_car subway aircraft wheelchair scooter drone" speed="19.45" length="12.45" shape="1800.12,6939.39 1797.15,6937.35 1794.78,6936.54 1792.19,6936.14 1788.56,6935.36"/>